<?xml version="1.0" encoding="UTF-8"?><abstracts-retrieval-response xmlns="http://www.elsevier.com/xml/svapi/abstract/dtd" xmlns:ait="http://www.elsevier.com/xml/ani/ait" xmlns:ce="http://www.elsevier.com/xml/ani/common" xmlns:cto="http://www.elsevier.com/xml/cto/dtd" xmlns:dc="http://purl.org/dc/elements/1.1/" xmlns:prism="http://prismstandard.org/namespaces/basic/2.0/" xmlns:xocs="http://www.elsevier.com/xml/xocs/dtd" xmlns:xsi="http://www.w3.org/2001/XMLSchema-instance"><coredata><prism:url>http://api.elsevier.com/content/abstract/scopus_id/84939838933</prism:url><dc:identifier>SCOPUS_ID:84939838933</dc:identifier><eid>2-s2.0-84939838933</eid><prism:doi>10.1007/s11356-015-5193-0</prism:doi><dc:title>Modified MODFLOW-based model for simulating the agglomeration and transport of polymer-modified Fe&lt;sup&gt;0&lt;/sup&gt; nanoparticles in saturated porous media</dc:title><prism:aggregationType>Journal</prism:aggregationType><srctype>j</srctype><citedby-count>0</citedby-count><prism:publicationName>Environmental Science and Pollution Research</prism:publicationName><dc:publisher>
Springer Verlag
service@springer.de
</dc:publisher><source-id>23918</source-id><prism:issn>16147499</prism:issn><prism:coverDate>2015-08-25</prism:coverDate><dc:creator><author auid="56798592400" seq="1"><ce:initials>P.</ce:initials><ce:indexed-name>Babakhani P.</ce:indexed-name><ce:surname>Babakhani</ce:surname><ce:given-name>Peyman</ce:given-name><preferred-name>
<ce:initials>P.</ce:initials>
<ce:indexed-name>Babakhani P.</ce:indexed-name>
<ce:surname>Babakhani</ce:surname>
<ce:given-name>Peyman</ce:given-name>
</preferred-name><author-url>http://api.elsevier.com/content/author/author_id/56798592400</author-url><affiliation href="http://api.elsevier.com/content/affiliation/affiliation_id/60105242" id="60105242"/></author></dc:creator><dc:description><abstract original="y" xml:lang="eng">
<publishercopyright>© 2015 Springer-Verlag Berlin Heidelberg</publishercopyright>
<ce:para>The solute transport model MODFLOW has become a standard tool in risk assessment and remediation design. However, particle transport models that take into account both particle agglomeration and deposition phenomena are far less developed. The main objective of the present study was to evaluate the feasibility of adapting the standard code MODFLOW/MT3D to simulate the agglomeration and transport of three different types of polymer-modified nanoscale zerovalent iron (NZVI) in one-dimensional (1-D) and two-dimensional (2-D) saturated porous media. A first-order decay of the particle population was used to account for the agglomeration of particles. An iterative technique was used to optimize the model parameters. The model provided good matches to 1-D NZVI-breakthrough data sets, with R&lt;sup&gt;2&lt;/sup&gt; values ranging from 0.96 to 0.99, and mass recovery differences between the experimental results and simulations ranged from 0.1 to 1.8 %. Similarly, simulations of NZVI transport in the heterogeneous 2-D model demonstrated that the model can be applied to more complicated heterogeneous domains. However, the fits were less good, with the R&lt;sup&gt;2&lt;/sup&gt; values in the 2-D modeling cases ranging from 0.75 to 0.95, while the mass recovery differences ranged from 0.7 to 6.5 %. Nevertheless, the predicted NZVI concentration contours during transport were in good agreement with the 2-D experimental observations. The model provides insights into NZVI transport in porous media by mathematically decoupling agglomeration, attachment, and detachment, and it illustrates the importance of each phenomenon in various situations. [Figure not available: see fulltext.]</ce:para>
</abstract></dc:description><link href="http://api.elsevier.com/content/abstract/scopus_id/84939838933" rel="self"/><link href="http://www.scopus.com/inward/record.url?partnerID=HzOxMe3b&amp;scp=84939838933&amp;origin=inward" rel="scopus"/></coredata><affiliation href="http://api.elsevier.com/content/affiliation/affiliation_id/60003858" id="60003858"><affilname>Uppsala Universitet</affilname><affiliation-city>Uppsala</affiliation-city><affiliation-country>Sweden</affiliation-country></affiliation><affiliation href="http://api.elsevier.com/content/affiliation/affiliation_id/60027666" id="60027666"><affilname>Sharif University of Technology</affilname><affiliation-city>Tehran</affiliation-city><affiliation-country>Iran</affiliation-country></affiliation><affiliation href="http://api.elsevier.com/content/affiliation/affiliation_id/60022498" id="60022498"><affilname>Naresuan University</affilname><affiliation-city>Pitsanulok</affiliation-city><affiliation-country>Thailand</affiliation-country></affiliation><affiliation href="http://api.elsevier.com/content/affiliation/affiliation_id/60105242" id="60105242"><affilname>Islamic Azad University, Science and Research Branch</affilname><affiliation-city>Tehran</affiliation-city><affiliation-country>Iran</affiliation-country></affiliation><affiliation href="http://api.elsevier.com/content/affiliation/affiliation_id/60014965" id="60014965"><affilname>Colorado School of Mines</affilname><affiliation-city>Golden</affiliation-city><affiliation-country>United States</affiliation-country></affiliation><affiliation href="http://api.elsevier.com/content/affiliation/affiliation_id/60027950" id="60027950"><affilname>Carnegie Mellon University</affilname><affiliation-city>Pittsburgh</affiliation-city><affiliation-country>United States</affiliation-country></affiliation><authors><author auid="56798592400" seq="1"><ce:initials>P.</ce:initials><ce:indexed-name>Babakhani P.</ce:indexed-name><ce:surname>Babakhani</ce:surname><ce:given-name>Peyman</ce:given-name><preferred-name>
<ce:initials>P.</ce:initials>
<ce:indexed-name>Babakhani P.</ce:indexed-name>
<ce:surname>Babakhani</ce:surname>
<ce:given-name>Peyman</ce:given-name>
</preferred-name><author-url>http://api.elsevier.com/content/author/author_id/56798592400</author-url><affiliation href="http://api.elsevier.com/content/affiliation/affiliation_id/60105242" id="60105242"/></author><author auid="14424158000" seq="2"><ce:initials>F.</ce:initials><ce:indexed-name>Fagerlund F.</ce:indexed-name><ce:surname>Fagerlund</ce:surname><ce:given-name>Fritjof</ce:given-name><preferred-name>
<ce:initials>F.</ce:initials>
<ce:indexed-name>Fagerlund F.</ce:indexed-name>
<ce:surname>Fagerlund</ce:surname>
<ce:given-name>Fritjof</ce:given-name>
</preferred-name><author-url>http://api.elsevier.com/content/author/author_id/14424158000</author-url><affiliation href="http://api.elsevier.com/content/affiliation/affiliation_id/60003858" id="60003858"/><affiliation href="http://api.elsevier.com/content/affiliation/affiliation_id/60014965" id="60014965"/></author><author auid="6507347209" seq="3"><ce:initials>A.</ce:initials><ce:indexed-name>Shamsai A.</ce:indexed-name><ce:surname>Shamsai</ce:surname><ce:given-name>Abolfazl</ce:given-name><preferred-name>
<ce:initials>A.</ce:initials>
<ce:indexed-name>Shamsai A.</ce:indexed-name>
<ce:surname>Shamsai</ce:surname>
<ce:given-name>Abolfazl</ce:given-name>
</preferred-name><author-url>http://api.elsevier.com/content/author/author_id/6507347209</author-url><affiliation href="http://api.elsevier.com/content/affiliation/affiliation_id/60105242" id="60105242"/><affiliation href="http://api.elsevier.com/content/affiliation/affiliation_id/60027666" id="60027666"/></author><author auid="7003945037" seq="4"><ce:initials>G.V.</ce:initials><ce:indexed-name>Lowry G.V.</ce:indexed-name><ce:surname>Lowry</ce:surname><ce:given-name>Gregory V.</ce:given-name><preferred-name>
<ce:initials>G.V.</ce:initials>
<ce:indexed-name>Lowry G.</ce:indexed-name>
<ce:surname>Lowry</ce:surname>
<ce:given-name>Gregory V.</ce:given-name>
</preferred-name><author-url>http://api.elsevier.com/content/author/author_id/7003945037</author-url><affiliation href="http://api.elsevier.com/content/affiliation/affiliation_id/60027950" id="60027950"/></author><author auid="11339428500" seq="5"><ce:initials>T.</ce:initials><ce:indexed-name>Phenrat T.</ce:indexed-name><ce:surname>Phenrat</ce:surname><ce:given-name>Tanapon</ce:given-name><preferred-name>
<ce:initials>T.</ce:initials>
<ce:indexed-name>Phenrat T.</ce:indexed-name>
<ce:surname>Phenrat</ce:surname>
<ce:given-name>Tanapon</ce:given-name>
</preferred-name><author-url>http://api.elsevier.com/content/author/author_id/11339428500</author-url><affiliation href="http://api.elsevier.com/content/affiliation/affiliation_id/60022498" id="60022498"/><affiliation href="http://api.elsevier.com/content/affiliation/affiliation_id/60022498" id="60022498"/></author></authors></abstracts-retrieval-response>
